123
 cluster10
N       -0.189650000     -0.660350000     -1.228680000
H       -0.699650000     -1.270350000     -0.598690000
H        0.290350000     -1.370350000     -1.768680000
C       -1.259650000     -0.370350000     -2.158680000
H       -2.069650000      0.269650000     -1.798680000
C       -0.659650000      0.469650000     -3.278690000
H        0.290350000     -0.010350000     -3.518680000
H       -1.229650000      0.429650000     -4.208680000
C       -0.239650000      1.859650000     -2.878680000
N        0.380350000      2.099650000     -1.648690000
C       -0.339650000      3.009650000     -3.608680000
H       -0.869650000      3.029650000     -4.548680000
C        0.530350000      3.419650000     -1.698680000
H        0.880350000      4.029650000     -0.878680000
N        0.110350000      4.039650000     -2.808680000
H        0.080350000      5.049650000     -2.888680000
C       -1.899650000     -1.640350000     -2.688690000
O       -1.239650000     -2.600350000     -3.098690000
N       -3.219650000     -1.740350000     -2.508690000
H       -3.709650000     -0.920350000     -2.178680000
C       -4.169650000     -2.750350000     -2.908680000
H       -4.779650000     -2.290350000     -3.688690000
H       -3.549650000     -3.550350000     -3.298680000
C       -4.959650000     -3.400350000     -1.768680000
O       -6.019650000     -3.950350000     -2.048680000
N       -4.429650000     -3.350350000     -0.548680000
H       -3.509650000     -2.930350000     -0.518680000
C       -5.019650000     -3.850350000      0.671310000
H       -5.239650000     -4.900350000      0.541320000
C       -3.879650000     -3.760350000      1.681320000
H       -4.099650000     -4.400350000      2.531320000
H       -3.099650000     -4.330350000      1.171310000
C       -3.439650000     -2.380350000      2.161320000
H       -4.289650000     -1.780350000      2.491310000
H       -2.939650000     -2.430350000      3.131310000
C       -2.789650000     -1.540350000      1.071320000
O       -3.019650000     -0.310350000      1.001320000
O       -1.899650000     -2.100350000      0.391320000
C       -6.359650000     -3.240350000      1.091320000
O       -6.936472800     -3.645893730      2.133615690
N        6.660350000      2.489650000     -1.078690000
H        6.607405500      1.795816330     -1.796876410
C        5.560350000      2.649650000     -0.138680000
H        5.710350000      3.589650000      0.391320000
C        4.150350000      2.509650000     -0.718680000
H        4.100350000      3.119650000     -1.618690000
H        4.190350000      1.449650000     -0.958680000
C        3.090350000      2.869650000      0.291320000
N        2.030350000      2.049650000      0.651310000
C        3.060350000      4.039650000      0.991310000
H        3.740350000      4.869650000      0.851310000
C        1.350350000      2.729650000      1.591320000
H        0.390350000      2.429650000      1.981320000
N        1.930350000      3.929650000      1.771320000
H        1.520350000      4.669650000      2.321320000
C        5.780350000      1.489650000      0.821320000
O        5.473614280      0.319399210      0.474914380
N        5.350350000     -0.620350000      3.791320000
H        5.516319520     -1.038350710      2.910199600
C        4.310350000     -1.120350000      4.661320000
H        3.690350000     -0.320350000      5.071320000
C        3.300350000     -1.990350000      3.921310000
H        3.880350000     -2.690350000      3.311310000
H        2.670350000     -2.630350000      4.541320000
C        2.340350000     -1.280350000      3.011310000
N        1.060350000     -0.910350000      3.401310000
H        0.600350000     -1.060350000      4.281320000
C        2.400350000     -0.980350000      1.681320000
H        3.230350000     -0.970350000      0.981320000
C        0.320350000     -0.700350000      2.301320000
H       -0.699650000     -0.350350000      2.321320000
N        1.120350000     -0.640350000      1.231320000
C        4.910350000     -2.000350000      5.751320000
O        5.719403820     -2.914981760      5.447262080
Cu       0.830350000      0.679650000     -0.288680000
O        1.900350000     -4.770350000      0.681320000
H        1.030350000     -4.620350000      0.311310000
H        2.130350000     -5.660350000      0.411320000
O       -4.759650000      0.079650000     -0.828690000
H       -5.009650000      0.999650000     -0.788680000
H       -4.149650000     -0.040350000     -0.098690000
O        4.960350000     -1.930350000     -1.958680000
H        4.490350000     -1.860350000     -2.788680000
H        4.530350000     -1.290350000     -1.388680000
O       -3.499650000      1.049650000      3.191320000
H       -3.719650000      1.939650000      2.931320000
H       -3.179650000      0.629650000      2.391320000
O       -0.639650000      6.379650000     -0.198680000
H       -1.319650000      5.739650000      0.031320000
H       -1.019650000      7.229650000      0.031320000
O        1.530350000     -2.240350000     -2.898690000
H        1.860350000     -3.100350000     -2.638680000
H        0.810350000     -2.440350000     -3.498680000
O       -1.369650000      1.439650000      0.391320000
H       -2.099650000      0.809650000      0.431320000
H       -1.769650000      2.269650000      0.641320000
O       -1.049650000      1.969650000      3.921310000
H       -1.309650000      2.889650000      3.921310000
H       -1.869650000      1.479650000      3.961320000
O       -3.479650000      2.389650000     -3.178680000
H       -3.609650000      2.509650000     -2.238690000
H       -3.719650000      1.479650000     -3.348690000
O        2.520350000      0.019650000     -1.828690000
H        2.940350000      0.649650000     -2.408680000
H        2.190350000     -0.660350000     -2.408680000
O        3.460350000      1.619650000     -3.678680000
H        3.180350000      1.599650000     -4.598690000
H        4.420350000      1.619650000     -3.718680000
O       -0.849650000     -4.400350000     -0.218680000
H       -1.639650000     -4.810350000     -0.568680000
H       -1.129650000     -3.530350000      0.071320000
O       -2.159650000      4.019650000      0.691320000
H       -2.879650000      4.499650000      0.261310000
H       -2.159650000      4.349650000      1.591320000
H       -6.805668240     -2.469212550      0.498601890
H        6.195857540      1.669036390      1.790894140
H        7.468916840      3.073574960     -1.006224090
H        5.873222440      0.190376110      4.054108910
H        4.643689530     -1.840509230      6.775157450
