120
 cluster2
N        0.817300000     -0.586220000     -0.277840000
H        0.427300000     -0.766220000     -1.197840000
H        0.977300000     -1.566220000     -0.057840000
C        2.177300000     -0.256220000     -0.657840000
H        2.167300000      0.463780000     -1.477840000
C        3.067300000      0.263780000      0.462160000
H        2.957300000     -0.186220000      1.442160000
H        4.117300000      0.153780000      0.192160000
C        2.757300000      1.733780000      0.592160000
N        1.567300000      2.103780000      1.212160000
C        3.507300000      2.783780000      0.132160000
H        4.477300000      2.793790000     -0.347840000
C        1.697290000      3.433780000      1.222160000
H        0.977300000      4.153780000      1.582160000
N        2.807300000      3.873780000      0.612160000
H        3.017290000      4.863780000      0.532160000
C        2.767290000     -1.526210000     -1.247840000
O        2.597300000     -2.566220000     -0.617840000
N        3.247300000     -1.456210000     -2.487840000
H        3.507300000     -0.536220000     -2.797840000
C        3.717300000     -2.616210000     -3.227840000
H        4.697290000     -2.446220000     -3.677840000
H        3.977300000     -3.436220000     -2.547840000
C        2.877290000     -3.096220000     -4.387840000
O        3.347300000     -3.876220000     -5.217840000
N        1.617300000     -2.656220000     -4.477840000
H        1.307300000     -2.096220000     -3.707840000
C        0.747300000     -2.686220000     -5.637840000
H        0.637300000     -3.726220000     -5.957840000
C       -0.672700000     -2.256220000     -5.257840000
H       -1.292700000     -2.526210000     -6.117840000
H       -1.012700000     -2.896220000     -4.437840000
C       -0.842700000     -0.776210000     -4.937840000
H       -0.392700000     -0.116210000     -5.677840000
H       -1.902700000     -0.526210000     -5.027840000
C       -0.332700000     -0.306220000     -3.577840000
O       -0.412700000     -1.136220000     -2.647840000
O        0.377300000      0.723790000     -3.527840000
C        1.277300000     -2.076220000     -6.927840000
O        0.625215280     -2.200387890     -7.996922980
N       -0.432700000      2.323780000      6.692160000
H        0.459363900      2.016547720      6.360753410
C       -1.362700000      2.393780000      5.582160000
H       -2.002700000      3.263780000      5.692160000
C       -0.622700000      2.303780000      4.242160000
H        0.317300000      2.863780000      4.312160000
H       -0.262700000      1.283780000      4.082160000
C       -1.192700000      2.933780000      3.002160000
N       -1.112700000      2.393780000      1.722160000
C       -2.022700000      4.023780000      2.992160000
H       -2.402700000      4.623780000      3.802160000
C       -1.712700000      3.263780000      0.912160000
H       -1.802700000      3.203780000     -0.157840000
N       -2.262700000      4.243780000      1.652160000
H       -2.852700000      5.003780000      1.342160000
C       -2.112700000      1.073780000      5.722160000
O       -1.475772020     -0.010882510      5.759584020
N       -5.032700000     -0.996220000      3.882160000
H       -5.005208350     -1.849183670      4.403405800
C       -5.732700000     -1.216220000      2.632160000
H       -6.072700000     -0.276210000      2.192160000
C       -4.772700000     -2.006220000      1.732160000
H       -4.352700000     -2.856220000      2.262160000
H       -5.372700000     -2.416220000      0.922160000
C       -3.652700000     -1.266220000      1.062160000
N       -3.682700000     -0.936220000     -0.277840000
H       -4.412700000     -1.186220000     -0.937840000
C       -2.412700000     -0.876220000      1.502160000
H       -1.942700000     -1.026210000      2.462160000
C       -2.592700000     -0.196220000     -0.517840000
H       -2.282700000      0.193780000     -1.477840000
N       -1.772700000     -0.116210000      0.522160000
C       -6.882700000     -2.176220000      2.922160000
O       -6.677882790     -3.217208910      3.598889310
Cu      -0.042700000      0.903780000      0.742160000
O        4.077300000      2.313780000      4.412160000
H        4.607300000      2.693780000      3.722160000
H        4.477300000      2.633790000      5.222160000
O        2.317300000     -4.106220000      1.602160000
H        3.067300000     -4.676220000      1.742160000
H        2.387300000     -3.836220000      0.682160000
O       -4.172700000      2.493780000     -1.417840000
H       -3.722700000      3.213780000     -1.867840000
H       -4.172700000      1.773780000     -2.057840000
O        3.697290000     -1.666220000      3.352160000
H        3.517290000     -2.496220000      2.902160000
H        4.547300000     -1.396220000      3.012160000
O        2.097300000      2.723790000     -4.067840000
H        1.417300000      2.053780000     -4.017840000
H        2.087290000      3.003780000     -4.987840000
O        0.877290000      4.533780000     -2.107840000
H        1.497300000      4.143780000     -2.717840000
H        0.127300000      4.793790000     -2.647840000
O       -0.262700000     -2.786220000      1.352160000
H        0.397300000     -3.416220000      1.642160000
H       -0.722700000     -3.226220000      0.642160000
O       -0.082700000      2.153780000     -1.257840000
H        0.197300000      3.033780000     -1.497840000
H       -0.102700000      1.673780000     -2.087840000
O       -3.232700000     -1.746220000     -3.127840000
H       -3.542700000     -2.246220000     -3.887840000
H       -2.282700000     -1.876220000     -3.137840000
O        0.507300000     -0.266220000      2.492160000
H        1.147300000     -0.046220000      3.172160000
H        0.387300000     -1.216220000      2.562160000
O        2.047300000      0.163780000      4.832160000
H        2.657300000      0.863780000      4.592160000
H        2.537300000     -0.646220000      4.652160000
O       -0.402700000     -3.586220000     -1.247840000
H       -0.082700000     -4.136220000     -1.967840000
H       -0.442700000     -2.706210000     -1.627840000
H       -5.510533420     -0.296373510      4.413093250
H       -7.863292130     -1.964282800      2.550109340
H        2.204310870     -1.541855150     -6.925591890
H       -3.180627820      1.069665400      5.788592150
H       -0.340428080      3.228845830      7.107300620