123
 cluster18
N       -1.428890000     -0.233400000     -0.016600000
H       -1.548890000     -0.333400000      0.983400000
H       -1.678890000     -1.203400000     -0.146610000
C       -2.658890000      0.466600000     -0.306610000
H       -2.458890000      1.396600000      0.223390000
C       -2.928890000      0.916600000     -1.746600000
H       -2.948890000     -0.023400000     -2.306610000
H       -3.948890000      1.296600000     -1.726600000
C       -1.948890000      1.966600000     -2.206600000
N       -0.588890000      1.646600000     -2.246600000
C       -2.198890000      3.196600000     -2.746600000
H       -3.118890000      3.706600000     -3.016600000
C       -0.048890000      2.756600000     -2.756610000
H        0.971110000      3.066600000     -2.896610000
N       -0.958890000      3.676600000     -3.116600000
H       -0.848890000      4.576600000     -3.556610000
C       -3.898890000     -0.263400000      0.183400000
O       -4.258890000     -1.373400000     -0.196600000
N       -4.548890000      0.356600000      1.173390000
H       -4.248890000      1.206600000      1.633400000
C       -5.698890000     -0.283400000      1.783400000
H       -6.558890000      0.306600000      1.473390000
H       -5.868890000     -1.293400000      1.403390000
C       -5.488890000     -0.303400000      3.293400000
O       -6.558890000     -0.333400000      3.903390000
N       -4.288890000     -0.193400000      3.863400000
H       -3.618890000     -0.423400000      3.143400000
C       -3.818890000     -0.063400000      5.233400000
H       -4.128890000     -1.013400000      5.653390000
C       -2.308890000     -0.063400000      5.473390000
H       -2.238890000     -0.053400000      6.553400000
H       -1.918890000     -1.063400000      5.283400000
C       -1.458890000      0.996600000      4.783400000
H       -1.938890000      1.976600000      4.813390000
H       -0.478890000      1.036600000      5.253400000
C       -1.068890000      0.706600000      3.343400000
O       -1.558890000     -0.273400000      2.743390000
O       -0.298890000      1.566600000      2.853390000
C       -4.398890000      1.146600000      5.953400000
O       -4.420480000      1.179670000      7.211180000
N        3.131110000     -1.013400000     -6.216600000
H        2.622600000     -1.874440000     -6.220640000
C        3.531110000     -0.693400000     -4.856600000
H        4.381110000     -0.023400000     -4.856600000
C        2.311110000     -0.053400000     -4.186610000
H        1.861110000      0.666600000     -4.856600000
H        1.541110000     -0.793400000     -3.976600000
C        2.731110000      0.726600000     -2.966600000
N        2.111110000      0.636600000     -1.716600000
C        3.691110000      1.696600000     -2.966600000
H        4.271110000      2.186600000     -3.736610000
C        2.851110000      1.486600000     -1.006610000
H        2.611110000      1.706600000      0.033400000
N        3.821110000      2.136600000     -1.666610000
H        4.401110000      2.886600000     -1.306610000
C        4.031110000     -1.933400000     -4.136600000
O        3.220970000     -2.671580000     -3.518270000
N        5.021110000     -3.873400000     -1.456600000
H        4.642750000     -4.735690000     -1.793190000
C        4.921110000     -3.833400000     -0.016600000
H        5.311110000     -2.863400000      0.303400000
C        3.471110000     -3.953400000      0.443390000
H        2.901110000     -4.703400000     -0.116600000
H        3.581110000     -4.393400000      1.443390000
C        2.761110000     -2.623400000      0.463400000
N        2.901110000     -1.773400000      1.533400000
H        3.311110000     -2.153400000      2.373400000
C        1.831110000     -2.033400000     -0.346610000
H        1.521110000     -2.353400000     -1.326610000
C        1.851110000     -0.933400000      1.553400000
H        1.521110000     -0.353400000      2.403390000
N        1.201110000     -1.033400000      0.393400000
C        5.721110000     -4.943400000      0.643400000
O        5.765290000     -6.085600000      0.117090000
Cu       0.281110000      0.236600000     -0.926600000
O        2.621110000      5.446600000     -2.126600000
H        1.921110000      5.156600000     -1.546600000
H        3.421110000      5.126600000     -1.706600000
O       -1.648890000      3.836600000      2.483400000
H       -1.318890000      3.066600000      2.943390000
H       -1.118890000      3.876600000      1.683400000
O       -0.088890000     -4.093400000     -3.686610000
H       -0.898890000     -4.443400000     -4.056610000
H        0.211110000     -4.763400000     -3.076610000
O        3.771110000      2.026600000      2.593400000
H        4.001110000      2.956600000      2.593400000
H        3.071110000      1.946600000      3.233400000
O       -3.178890000     -2.583400000     -3.136600000
H       -2.738890000     -2.293400000     -2.336600000
H       -4.088890000     -2.313400000     -3.026610000
O       -4.098890000      2.886600000      1.913400000
H       -3.228890000      3.276600000      2.043400000
H       -4.298890000      3.066600000      0.993390000
O       -1.008890000     -0.333400000     -4.716600000
H       -1.798890000      0.186600000     -4.876600000
H       -1.038890000     -1.023400000     -5.386600000
O        0.081110000      2.146600000      0.313390000
H       -0.098890000      1.896600000      1.223390000
H        0.381110000      3.056600000      0.373400000
O        0.891110000      4.746600000     -0.066600000
H        0.321110000      5.496600000     -0.206600000
H        1.631110000      5.096600000      0.433400000
O       -0.498890000     -1.483400000     -2.416610000
H       -0.158890000     -2.353400000     -2.626600000
H       -0.688890000     -1.093400000     -3.276610000
O       -1.368890000     -2.803400000      2.993390000
H       -1.338890000     -1.853400000      3.003400000
H       -1.968890000     -3.033400000      3.703400000
O       -1.278890000     -3.283400000      0.283400000
H       -2.158890000     -3.573400000      0.063390000
H       -1.308890000     -3.143400000      1.233400000
O        1.801110000      1.796600000      4.443390000
H        1.061110000      1.586600000      3.863400000
H        1.561110000      2.636600000      4.833390000
H        6.247040000     -4.754040000      1.555780000
H        5.981540000     -3.803050000     -1.726120000
H        5.072270000     -2.179460000     -4.155040000
H        3.944810000     -1.104130000     -6.790770000
H       -4.788070000      1.968700000      5.389840000