123
 cluster17
N       -0.379490000     -1.429580000      0.147200000
H       -0.019490000     -1.049580000      1.017200000
H        0.330510000     -2.139580000      0.097200000
C       -1.619490000     -1.889580000      0.737200000
H       -2.179490000     -1.039580000      1.127200000
C       -2.629490000     -2.369580000     -0.302800000
H       -2.119490000     -2.979580000     -1.032800000
H       -3.389490000     -2.989580000      0.177200000
C       -3.209490000     -1.299580000     -1.192800000
N       -2.449490000     -0.299580000     -1.802800000
C       -4.549490000     -1.089580000     -1.372800000
H       -5.359490000     -1.629580000     -0.902800000
C       -3.369490000      0.380420000     -2.492800000
H       -3.259490000      1.250420000     -3.122800000
N       -4.619490000     -0.029580000     -2.252800000
H       -5.439490000      0.420420000     -2.642800000
C       -1.389490000     -3.019580000      1.727210000
O       -0.919490000     -4.069580000      1.297200000
N       -1.639490000     -2.719580000      3.007200000
H       -2.139490000     -1.889580000      3.297200000
C       -1.319490000     -3.739580000      3.987200000
H       -2.229490000     -3.829580000      4.587200000
H       -1.139490000     -4.739580000      3.597200000
C       -0.229490000     -3.279580000      4.947200000
O        0.690510000     -4.079580000      5.147200000
N       -0.419490000     -2.079580000      5.497200000
H       -1.339490000     -1.689580000      5.337200000
C        0.520510000     -1.379580000      6.337200000
H        1.010510000     -2.209580000      6.847200000
C        1.610510000     -0.599580000      5.607200000
H        2.310510000     -0.179580000      6.327200000
H        2.230510000     -1.339580000      5.107200000
C        1.140510000      0.390420000      4.537200000
H        0.500510000      1.180420000      4.917200000
H        2.050510000      0.870420000      4.177200000
C        0.740510000     -0.119580000      3.157200000
O        1.120510000     -1.249580000      2.767200000
O       -0.129490000      0.550420000      2.547200000
C       -0.199490000     -0.629580000      7.447200000
O        0.452040000      0.099810000      8.239080000
N       -0.929490000      0.330420000     -7.422800000
H       -0.545110000     -0.588300000     -7.513390000
C       -0.339490000      0.990420000     -6.272790000
H       -0.219490000      2.060420000     -6.432790000
C       -1.069490000      0.720420000     -4.962800000
H       -2.139490000      0.630420000     -5.112790000
H       -0.819490000     -0.259580000     -4.562800000
C       -0.869490000      1.760420000     -3.892800000
N       -0.529490000      1.520420000     -2.562800000
C       -1.039490000      3.110420000     -4.032800000
H       -1.369490000      3.750420000     -4.832800000
C       -0.309490000      2.690420000     -1.972800000
H       -0.169490000      3.050420000     -0.962800000
N       -0.549490000      3.670420000     -2.862790000
H       -0.699490000      4.650420000     -2.692800000
C        1.030510000      0.340420000     -6.122800000
O        1.121690000     -0.902990000     -5.951970000
N        4.690510000      0.590420000     -4.252800000
H        4.504940000     -0.371170000     -4.455060000
C        5.410510000      0.950420000     -3.052800000
H        5.120510000      1.940420000     -2.692800000
C        5.040510000     -0.099580000     -2.002800000
H        5.130510000     -1.109580000     -2.392800000
H        5.700510000     -0.009580000     -1.142800000
C        3.680510000      0.170420000     -1.422800000
N        3.510510000      0.820420000     -0.212800000
H        4.280510000      1.170420000      0.327200000
C        2.410510000     -0.139580000     -1.812800000
H        2.010510000     -0.659580000     -2.672800000
C        2.190510000      0.880420000      0.067210000
H        1.860510000      1.520420000      0.877200000
N        1.460510000      0.360420000     -0.922800000
C        6.880510000      0.990420000     -3.472800000
O        7.273290000      0.307690000     -4.454210000
Cu      -0.499490000     -0.069580000     -1.232800000
O        1.570510000      3.350420000      3.137210000
H        0.810510000      3.690420000      3.607200000
H        1.210510000      2.750420000      2.477210000
O       -1.159490000      4.900420000      0.437200000
H       -1.439490000      5.790420000      0.677200000
H       -1.979490000      4.450420000      0.227210000
O        1.860510000     -3.129580000      0.847200000
H        1.180510000     -3.779580000      1.027200000
H        1.760510000     -2.479580000      1.537200000
O       -3.759490000      1.990420000      1.237200000
H       -3.739490000      2.910420000      0.957200000
H       -3.489490000      2.010420000      2.157200000
O        1.540510000     -3.909580000     -2.332800000
H        2.040510000     -3.729580000     -1.532800000
H        1.300510000     -4.829580000     -2.252800000
O        1.640510000      4.140420000      0.507200000
H        1.860510000      4.260420000      1.427200000
H        0.690510000      4.250420000      0.477210000
O        2.730510000     -3.179580000      3.857200000
H        2.140510000     -3.519580000      4.527200000
H        2.250510000     -2.439580000      3.477210000
O       -1.319490000      1.130420000      0.467200000
H       -0.809490000      1.010420000      1.267200000
H       -2.199490000      1.370420000      0.777200000
O       -2.919490000     -0.649580000      4.707200000
H       -2.829490000      0.200420000      4.287200000
H       -3.639490000     -1.079580000      4.247200000
O       -0.149490000     -1.879580000     -2.722800000
H        0.420510000     -2.639580000     -2.642800000
H       -0.889490000     -2.189580000     -3.252800000
O       -2.119490000      1.950420000      3.497200000
H       -1.359490000      1.420420000      3.247200000
H       -1.739490000      2.770420000      3.827200000
O       -3.719490000      4.490420000     -0.002800000
H       -4.129490000      4.590420000     -0.862790000
H       -3.529490000      5.390420000      0.277200000
O       -2.359490000     -3.299580000     -4.182790000
H       -3.089490000     -2.969580000     -4.702800000
H       -2.749490000     -3.929580000     -3.582800000
H        7.575010000      1.598930000     -2.932170000
H        4.377820000      1.302870000     -4.881000000
H       -1.260040000     -0.722110000      7.554820000
H       -0.730160000      0.858060000     -8.248540000
H        1.914990000      0.941250000     -6.162720000