123
 cluster13
N       -0.448770000     -1.047540000     -0.210270000
H       -0.868770000     -1.007540000      0.709740000
H       -0.068770000     -1.977540000     -0.110260000
C       -1.638770000     -1.527540000     -0.880260000
H       -2.468770000     -0.907540000     -0.540260000
C       -1.528770000     -1.417540000     -2.410260000
H       -0.728770000     -2.077540000     -2.730260000
H       -2.408770000     -1.867540000     -2.860260000
C       -1.328770000     -0.017540000     -2.930260000
N       -0.278770000      0.832460000     -2.620270000
C       -2.238770000      0.662460000     -3.700260000
H       -3.188770000      0.272460000     -4.050260000
C       -0.438770000      1.922460000     -3.380260000
H        0.231230000      2.762450000     -3.460270000
N       -1.608770000      1.842460000     -4.040260000
H       -1.968770000      2.542460000     -4.670260000
C       -1.948770000     -2.947540000     -0.430260000
O       -1.048770000     -3.727540000     -0.120270000
N       -3.238770000     -3.287540000     -0.340260000
H       -3.968770000     -2.617540000     -0.550260000
C       -3.778770000     -4.477540000      0.289730000
H       -4.598770000     -4.917540000     -0.270260000
H       -3.158770000     -5.357540000      0.449740000
C       -4.448770000     -4.147550000      1.619740000
O       -5.288770000     -4.927540000      2.059740000
N       -4.158770000     -3.017540000      2.279740000
H       -3.478770000     -2.357540000      1.949740000
C       -4.728770000     -2.697540000      3.569740000
H       -4.558770000     -3.517540000      4.269740000
C       -3.688770000     -1.767540000      4.209740000
H       -4.048770000     -1.537540000      5.209740000
H       -2.738770000     -2.297540000      4.279740000
C       -3.518770000     -0.367540000      3.609740000
H       -4.468770000      0.152460000      3.489740000
H       -3.158770000      0.342460000      4.359740000
C       -2.668770000     -0.277540000      2.349740000
O       -2.808770000      0.712460000      1.609740000
O       -1.858770000     -1.197540000      2.129730000
C       -6.158770000     -2.167540000      3.579740000
O       -6.709841060     -1.864416340      4.669697470
N        5.401230000      1.792460000     -4.260260000
H        5.330737260      0.795517770     -4.293978820
C        4.741230000      2.282460000     -3.070260000
H        4.911230000      3.352450000     -2.990260000
C        3.261230000      1.882460000     -3.160260000
H        2.981230000      2.202460000     -4.160260000
H        3.051230000      0.812460000     -3.050260000
C        2.391230000      2.682460000     -2.230260000
N        1.811230000      2.192450000     -1.070260000
C        2.171230000      4.032460000     -2.290260000
H        2.511230000      4.782460000     -2.990260000
C        1.441230000      3.292460000     -0.410260000
H        0.931230000      3.282460000      0.539730000
N        1.591230000      4.442450000     -1.100260000
H        1.161230000      5.322460000     -0.870270000
C        5.411230000      1.632460000     -1.870270000
O        4.986199030      0.532159040     -1.431798750
N        6.051230000      1.452460000      1.749740000
H        6.087650740      0.579076310      1.264049750
C        5.511230000      1.512450000      3.089740000
H        4.981230000      2.432460000      3.329740000
C        4.541230000      0.362460000      3.349740000
H        4.951230000     -0.637540000      3.229740000
H        4.351230000      0.422460000      4.419740000
C        3.221230000      0.392460000      2.639740000
N        2.081230000      0.942450000      3.199740000
H        2.131230000      1.312460000      4.139740000
C        2.851230000      0.182460000      1.339740000
H        3.441230000     -0.077540000      0.469730000
C        1.111230000      0.962460000      2.279740000
H        0.161230000      1.362460000      2.609740000
N        1.521230000      0.502460000      1.099740000
C        6.591230000      1.382460000      4.159740000
O        7.610242920      0.676708990      3.942717570
Cu       0.601230000      0.532460000     -0.760260000
O       -0.848770000      4.102450000      2.569740000
H       -1.138770000      4.992460000      2.409740000
H       -1.648770000      3.612460000      2.759740000
O       -1.908770000      4.142460000     -1.430260000
H       -1.668770000      4.262450000     -2.350260000
H       -2.118770000      5.022460000     -1.120270000
O       -3.318770000      2.802460000      3.219730000
H       -3.198770000      2.062460000      2.629730000
H       -4.058770000      3.282460000      2.849740000
O        3.581230000     -2.777540000     -0.410260000
H        3.561230000     -3.697540000     -0.660260000
H        3.031230000     -2.717540000      0.369740000
O       -4.948770000      1.802460000     -2.950260000
H       -5.218770000      0.972460000     -3.330260000
H       -4.618770000      1.572460000     -2.080260000
O       -1.018770000      1.972460000     -0.040260000
H       -1.348770000      2.852450000     -0.240260000
H       -1.698770000      1.582460000      0.499740000
O        3.921230000     -0.467540000     -5.460270000
H        3.891230000     -0.987550000     -6.260260000
H        3.361230000     -0.937540000     -4.840260000
O        2.101230000     -4.397550000     -2.820260000
H        1.601230000     -5.117540000     -2.430260000
H        2.951230000     -4.437540000     -2.390260000
O        1.461230000     -2.947540000      1.259740000
H        1.281230000     -2.467540000      2.069740000
H        0.781230000     -3.617540000      1.219730000
O        1.671230000     -1.777540000     -4.120270000
H        1.611230000     -2.717540000     -3.960270000
H        1.271230000     -1.647550000     -4.980260000
O       -4.378770000      1.632460000     -0.290260000
H       -4.488770000      2.572460000     -0.100260000
H       -3.918770000      1.292460000      0.479740000
O        2.061230000     -0.957540000     -1.500260000
H        2.751230000     -1.527540000     -1.160260000
H        1.741230000     -1.417540000     -2.280270000
O       -0.178770000     -2.397550000      3.959740000
H       -0.538770000     -1.977540000      4.739740000
H       -0.668770000     -2.017540000      3.229740000
H        6.244173060      2.110561410     -1.398544560
H        6.365125400      2.057978550     -4.240121350
H        6.388458510      2.284254670      1.308803930
H        6.482129250      1.891394560      5.094610380
H       -6.693486900     -2.053434960      2.659980310
