123
 cluster19
N       -1.138660000      0.638060000      0.265220000
H       -1.148670000      0.478060000      1.265220000
H       -1.738670000     -0.141940000      0.035220000
C       -2.108660000      1.688060000      0.085220000
H       -1.738670000      2.618060000      0.525220000
C       -2.348660000      2.038060000     -1.384780000
H       -2.548660000      1.078060000     -1.874780000
H       -3.328670000      2.488060000     -1.504780000
C       -1.168660000      2.728060000     -2.014780000
N        0.171330000      2.378060000     -1.834780000
C       -1.308660000      3.748060000     -2.914780000
H       -2.108660000      4.298060000     -3.384780000
C        0.791340000      3.408060000     -2.404780000
H        1.841340000      3.658060000     -2.324780000
N       -0.018660000      4.188060000     -3.144780000
H        0.141340000      5.018060000     -3.704780000
C       -3.388660000      1.248060000      0.775220000
O       -3.978660000      0.208060000      0.475220000
N       -3.808660000      2.058060000      1.745220000
H       -3.128660000      2.778060000      1.945220000
C       -5.118660000      2.058060000      2.365220000
H       -5.568660000      3.048060000      2.325220000
H       -5.818660000      1.408060000      1.845220000
C       -5.088660000      1.748060000      3.855220000
O       -6.138660000      1.828060000      4.495220000
N       -3.898670000      1.438060000      4.365220000
H       -3.088660000      1.628060000      3.785220000
C       -3.608660000      0.838060000      5.655220000
H       -4.488670000      0.378060000      6.085220000
C       -2.498660000     -0.211940000      5.535220000
H       -2.598660000     -0.821940000      6.435220000
H       -2.798660000     -0.911940000      4.745220000
C       -1.048660000      0.188060000      5.285220000
H       -0.838660000      1.088060000      5.855220000
H       -0.338660000     -0.521940000      5.725220000
C       -0.748660000      0.528060000      3.835220000
O       -1.428660000      0.018060000      2.915220000
O        0.271340000      1.228060000      3.655220000
C       -3.198660000      1.948060000      6.605220000
O       -2.483290000      1.686650000      7.606960000
N        2.711340000     -0.291940000     -6.184780000
H        1.771530000     -0.632000000     -6.218400000
C        3.201340000     -0.361940000     -4.824780000
H        4.261330000     -0.141940000     -4.754780000
C        2.341340000      0.618060000     -4.034780000
H        2.431340000      1.558060000     -4.584780000
H        1.291340000      0.368060000     -3.874780000
C        2.981340000      1.088060000     -2.754780000
N        2.441340000      0.778060000     -1.514780000
C        4.191340000      1.708060000     -2.604780000
H        4.901340000      2.018060000     -3.364780000
C        3.421330000      1.108060000     -0.664780000
H        3.491340000      0.868060000      0.385220000
N        4.421330000      1.778060000     -1.244780000
H        5.141340000      2.278060000     -0.734780000
C        2.981340000     -1.791940000     -4.324780000
O        1.909540000     -2.096010000     -3.739660000
N        3.371340000     -4.421940000     -2.044780000
H        2.622180000     -4.950730000     -2.443720000
C        3.501340000     -4.751940000     -0.644780000
H        4.241340000     -4.121940000     -0.154780000
C        2.211340000     -4.511940000      0.125220000
H        1.381340000     -5.031940000     -0.354780000
H        2.221340000     -4.961940000      1.125220000
C        1.791340000     -3.081940000      0.345220000
N        2.041340000     -2.491940000      1.575220000
H        2.441340000     -2.941940000      2.385220000
C        1.261330000     -2.101940000     -0.444780000
H        1.021340000     -2.181940000     -1.494780000
C        1.531340000     -1.251940000      1.525220000
H        1.491340000     -0.691940000      2.445220000
N        1.101330000     -0.941940000      0.295220000
C        3.971340000     -6.201940000     -0.534780000
O        3.688990000     -7.025540000     -1.443370000
Cu       0.551340000      0.748060000     -0.714780000
O       -1.368660000     -4.021940000     -1.004780000
H       -1.828670000     -3.261940000     -0.644780000
H       -2.048660000     -4.501940000     -1.484780000
O        2.371340000      1.088060000      5.075220000
H        2.581340000      2.018060000      5.175220000
H        1.561340000      1.068060000      4.565220000
O       -0.638660000      3.618060000      4.525220000
H       -0.408660000      3.648060000      5.455220000
H       -0.428660000      2.728060000      4.265220000
O        2.641340000      4.288060000      1.115220000
H        3.171330000      4.688060000      0.435220000
H        1.741340000      4.568060000      0.915220000
O        1.201340000      1.938060000      1.115220000
H        0.921330000      1.768060000      2.015220000
H        1.781340000      2.698060000      1.185220000
O       -0.148670000      0.198060000     -6.614780000
H       -0.938660000      0.418060000     -6.114780000
H       -0.228660000      0.698060000     -7.424780000
O        3.971340000      0.518060000      3.145220000
H        3.441340000      0.788060000      3.895220000
H        4.421330000      1.318060000      2.865220000
O       -0.558660000     -0.501940000     -2.314780000
H       -1.268660000      0.018060000     -2.684780000
H       -0.618660000     -1.341940000     -2.764780000
O       -2.328670000      0.808060000     -4.444780000
H       -2.758660000      1.438060000     -5.024780000
H       -2.798660000     -0.011940000     -4.594780000
O       -3.188660000     -1.891940000     -4.324780000
H       -2.438660000     -2.291940000     -3.884780000
H       -3.948660000     -2.201940000     -3.814780000
O       -2.458660000     -1.921940000      0.215220000
H       -2.158660000     -2.011940000      1.125220000
H       -3.388660000     -1.691940000      0.295220000
O       -1.988670000     -2.551940000      2.805220000
H       -2.728660000     -2.741940000      3.385220000
H       -1.828670000     -1.611940000      2.925220000
O       -0.738670000     -2.851940000     -3.554780000
H        0.021340000     -3.041940000     -4.104780000
H       -0.608660000     -3.401940000     -2.774780000
H        4.540490000     -6.516870000      0.314800000
H        4.223770000     -4.641120000     -2.519460000
H        3.290100000     -0.852690000     -6.776890000
H        3.738890000     -2.532950000     -4.472800000
H       -3.517840000      2.953020000      6.423330000